FoamFile
{
    version     2.0;
    format      ascii;
    class       dictionary;
    object      poroHydraulicProperties;
}

rho     rho [1 -3 0 0 0 0 0] 1000;
href    href [0 1 0 0 0 0 0] 0;

// Top-level entries are used as default values for the auto-created
// defaultZone (no cellZones required). For multi-zone meshes, add a
// named sub-dict per zone that overrides these defaults.

n               n [0 0 0 0 0 0 0] 0.35;
storageLaw      storageCoeff;
conductivityLaw constant;
saturationLaw   vanGenuchten;

storageCoeffCoeffs
{
    // Head form (pHead in m): Ss in [1/m] = [0 -1 0 0 0 0 0]
    Ss          Ss [0 -1 0 0 0 0 0] 1e-5;
}

k       k [0 1 -1 0 0 0 0] 1e-5;

vanGenuchtenCoeffs
{
    // Replace with your calibrated SWCC parameters.
    // Head form (pHead in m): alpha in [1/m] = [0 -1 0 0 0 0 0]
    alpha   alpha [0 -1 0 0 0 0 0] 1e-4;
    n       n [0 0 0 0 0 0 0] 1.5;
    S_r     S_r [0 0 0 0 0 0 0] 0.1;
    S_0     S_0 [0 0 0 0 0 0 0] 1.0;
}
