#!/bin/bash
cd "${0%/*}" || exit 1

set -e

repoRoot="../../.."
testCase="${TMPDIR:-/tmp}/poroMechanicalFoam-hydraulicModelUnit-$$"
trap 'rm -rf "$testCase"' EXIT

mkdir -p "$testCase/system" "$testCase/constant/polyMesh"

cat > "$testCase/system/controlDict" <<'EOF'
FoamFile
{
    version 2.0;
    format ascii;
    class dictionary;
    object controlDict;
}

application hydraulicModelUnit;
startFrom startTime;
startTime 0;
stopAt endTime;
endTime 0;
deltaT 1;
writeControl timeStep;
writeInterval 1;
EOF

cat > "$testCase/system/fvSchemes" <<'EOF'
FoamFile
{
    version 2.0;
    format ascii;
    class dictionary;
    object fvSchemes;
}

ddtSchemes
{
    default steadyState;
}

gradSchemes
{
    default Gauss linear;
}

divSchemes
{
    default none;
}

laplacianSchemes
{
    default Gauss linear corrected;
}

interpolationSchemes
{
    default linear;
}

snGradSchemes
{
    default corrected;
}
EOF

cat > "$testCase/system/fvSolution" <<'EOF'
FoamFile
{
    version 2.0;
    format ascii;
    class dictionary;
    object fvSolution;
}
EOF

cat > "$testCase/constant/polyMesh/blockMeshDict" <<'EOF'
FoamFile
{
    version 2.0;
    format ascii;
    class dictionary;
    object blockMeshDict;
}

scale 1;

vertices
(
    (0 0 0)
    (1 0 0)
    (1 1 0)
    (0 1 0)
    (0 0 1)
    (1 0 1)
    (1 1 1)
    (0 1 1)
);

blocks
(
    hex (0 1 2 3 4 5 6 7) (1 1 1) simpleGrading (1 1 1)
);

edges ();

boundary
(
    walls
    {
        type wall;
        faces
        (
            (0 4 7 3)
            (1 2 6 5)
            (0 1 5 4)
            (3 7 6 2)
            (0 3 2 1)
            (4 5 6 7)
        );
    }
);
EOF

echo "Building poroHydraulicModels for unit tests"
wmake "$repoRoot/materialModels/poroHydraulicModel"

echo "Building hydraulicModelUnit"
wmake

echo "Creating unit-test mesh: $testCase"
blockMesh -case "$testCase" >/dev/null

export DYLD_LIBRARY_PATH="$FOAM_LIBBIN:$FOAM_USER_LIBBIN:$WM_PROJECT_DIR/env/lib:${DYLD_LIBRARY_PATH:-}"
hydraulicModelUnit -case "$testCase"
