FoamFile
{
    version     2.0;
    format      ascii;
    class       dictionary;
    object      fvSolution;
}

solvers
{
    p_rgh
    {
        solver          PBiCGStab;
        preconditioner  DILU;
        tolerance       1e-10;
        relTol          0;
    }
}

relaxationFactors
{
    fields
    {
        p_rgh           1;
        kEffbyGammaf    1;
    }
}

