FoamFile
{
    version     2.0;
    format      ascii;
    class       volScalarField;
    object      p_rgh;
}

dimensions      [1 -1 -2 0 0 0 0];

internalField   uniform -2000;

boundaryField
{
    inlet
    {
        type            fixedValue;
        value           uniform 0;
    }

    outlet
    {
        type            zeroGradient;
    }

    walls
    {
        type            zeroGradient;
    }

    frontAndBack
    {
        type            empty;
    }
}

