FoamFile
{
    version     2.0;
    format      ascii;
    class       dictionary;
    object      fvSolution;
}

solvers
{
    pHead
    {
        solver          PBiCGStab;
        preconditioner  DILU;
        tolerance       1e-10;
        relTol          0;
    }
}

relaxationFactors
{
    fields
    {
        pHead           1;
        kEfff           1;
    }
}

