FoamFile
{
    version     2.0;
    format      ascii;
    class       dictionary;
    object      mechanicalProperties;
}

// Replace this with a valid solids4Foam mechanical setup.
// The structure below is only a poromechanics-oriented placeholder.

mechanical
(
    soil
    {
        type                    poroMechanicalLaw2;
        biotCoeff               biotCoeff [0 0 0 0 0 0 0] 1;
        pressureFieldName       p;

        effectiveStressMechanicalLaw
        {
            // Replace with a valid solid constitutive law from solids4Foam
            type                linearElastic;
            rho                 rho [1 -3 0 0 0 0 0] 2000;
            E                   E [1 -1 -2 0 0 0 0] 1e7;
            nu                  nu [0 0 0 0 0 0 0] 0.3;
        }
    }
);

